<?xml version="1.0" encoding="UTF-8"?>

<!-- generated on Sun 11 Oct 2020 12:00:51 AM IST by Eclipse SUMO netedit Version 1.7.0
<configuration xmlns:xsi="http://www.w3.org/2001/XMLSchema-instance" xsi:noNamespaceSchemaLocation="http://sumo.dlr.de/xsd/netconvertConfiguration.xsd">

    <input>
        <osm-files value="/home/abhijit/iitkgpp2.2.osm"/>
    </input>

    <output>
        <output-file value="/home/abhijit/2.2.net.xml"/>
    </output>

    <projection>
        <proj.utm value="true"/>
    </projection>

    <processing>
        <geometry.remove value="true"/>
    </processing>

    <tls_building>
        <tls.discard-simple value="true"/>
        <tls.guess-signals value="true"/>
    </tls_building>

    <ramp_guessing>
        <ramps.guess value="true"/>
    </ramp_guessing>

    <junctions>
        <junctions.join value="true"/>
    </junctions>

    <report>
        <aggregate-warnings value="5"/>
    </report>

</configuration>
-->

<net version="1.6" junctionCornerDetail="5" limitTurnSpeed="5.50" xmlns:xsi="http://www.w3.org/2001/XMLSchema-instance" xsi:noNamespaceSchemaLocation="http://sumo.dlr.de/xsd/net_file.xsd">

    <location netOffset="-530523.59,-2467042.65" convBoundary="0.00,0.00,2358.70,1377.74" origBoundary="87.296374,22.308832,87.319280,22.321282" projParameter="+proj=utm +zone=45 +ellps=WGS84 +datum=WGS84 +units=m +no_defs"/>

    <type id="highway.bridleway" priority="1" numLanes="1" speed="2.78" allow="pedestrian" oneway="1" width="2.00"/>
    <type id="highway.bus_guideway" priority="1" numLanes="1" speed="27.78" allow="bus" oneway="1"/>
    <type id="highway.cycleway" priority="1" numLanes="1" speed="8.33" allow="bicycle" oneway="0" width="1.00"/>
    <type id="highway.footway" priority="1" numLanes="1" speed="2.78" allow="pedestrian" oneway="1" width="2.00"/>
    <type id="highway.ford" priority="1" numLanes="1" speed="2.78" allow="army" oneway="0"/>
    <type id="highway.living_street" priority="2" numLanes="1" speed="2.78" disallow="tram rail_urban rail rail_electric rail_fast ship" oneway="0"/>
    <type id="highway.motorway" priority="14" numLanes="2" speed="39.44" allow="private emergency authority army vip passenger hov taxi bus coach delivery truck trailer motorcycle evehicle custom1 custom2" oneway="1"/>
    <type id="highway.motorway_link" priority="9" numLanes="1" speed="22.22" allow="private emergency authority army vip passenger hov taxi bus coach delivery truck trailer motorcycle evehicle custom1 custom2" oneway="1"/>
    <type id="highway.path" priority="1" numLanes="1" speed="2.78" allow="pedestrian bicycle" oneway="1" width="2.00"/>
    <type id="highway.pedestrian" priority="1" numLanes="1" speed="2.78" allow="pedestrian" oneway="1" width="2.00"/>
    <type id="highway.primary" priority="12" numLanes="2" speed="27.78" disallow="tram rail_urban rail rail_electric rail_fast ship" oneway="0"/>
    <type id="highway.primary_link" priority="7" numLanes="1" speed="22.22" disallow="tram rail_urban rail rail_electric rail_fast ship" oneway="0"/>
    <type id="highway.raceway" priority="15" numLanes="2" speed="83.33" allow="vip" oneway="0"/>
    <type id="highway.residential" priority="3" numLanes="1" speed="13.89" disallow="tram rail_urban rail rail_electric rail_fast ship" oneway="0"/>
    <type id="highway.secondary" priority="11" numLanes="1" speed="27.78" disallow="tram rail_urban rail rail_electric rail_fast ship" oneway="0"/>
    <type id="highway.secondary_link" priority="6" numLanes="1" speed="22.22" disallow="tram rail_urban rail rail_electric rail_fast ship" oneway="0"/>
    <type id="highway.service" priority="1" numLanes="1" speed="5.56" allow="pedestrian delivery bicycle" oneway="0"/>
    <type id="highway.stairs" priority="1" numLanes="1" speed="1.39" allow="pedestrian" oneway="1" width="2.00"/>
    <type id="highway.step" priority="1" numLanes="1" speed="1.39" allow="pedestrian" oneway="1" width="2.00"/>
    <type id="highway.steps" priority="1" numLanes="1" speed="1.39" allow="pedestrian" oneway="1" width="2.00"/>
    <type id="highway.tertiary" priority="10" numLanes="1" speed="22.22" disallow="tram rail_urban rail rail_electric rail_fast ship" oneway="0"/>
    <type id="highway.tertiary_link" priority="5" numLanes="1" speed="22.22" disallow="tram rail_urban rail rail_electric rail_fast ship" oneway="0"/>
    <type id="highway.track" priority="1" numLanes="1" speed="5.56" allow="pedestrian motorcycle moped bicycle" oneway="0"/>
    <type id="highway.trunk" priority="13" numLanes="2" speed="27.78" disallow="pedestrian bicycle tram rail_urban rail rail_electric rail_fast ship" oneway="0"/>
    <type id="highway.trunk_link" priority="8" numLanes="1" speed="22.22" disallow="pedestrian bicycle tram rail_urban rail rail_electric rail_fast ship" oneway="0"/>
    <type id="highway.unclassified" priority="4" numLanes="1" speed="13.89" disallow="tram rail_urban rail rail_electric rail_fast ship" oneway="0"/>
    <type id="highway.unsurfaced" priority="1" numLanes="1" speed="8.33" disallow="tram rail_urban rail rail_electric rail_fast ship" oneway="0"/>
    <type id="railway.highspeed" priority="21" numLanes="1" speed="69.44" allow="rail_fast" oneway="1"/>
    <type id="railway.light_rail" priority="19" numLanes="1" speed="27.78" allow="rail_urban" oneway="1"/>
    <type id="railway.preserved" priority="16" numLanes="1" speed="27.78" allow="rail" oneway="1"/>
    <type id="railway.rail" priority="20" numLanes="1" speed="44.44" allow="rail" oneway="1"/>
    <type id="railway.subway" priority="18" numLanes="1" speed="27.78" allow="rail_urban" oneway="1"/>
    <type id="railway.tram" priority="17" numLanes="1" speed="13.89" allow="tram" oneway="1"/>

    <edge id=":1471100885_0" function="internal">
        <lane id=":1471100885_0_0" index="0" disallow="tram rail_urban rail rail_electric rail_fast ship" speed="6.47" length="9.03" shape="1402.95,958.00 1400.47,958.00 1398.59,958.79 1397.33,960.38 1396.66,962.77"/>
    </edge>
    <edge id=":1471100885_1" function="internal">
        <lane id=":1471100885_1_0" index="0" disallow="tram rail_urban rail rail_electric rail_fast ship" speed="22.22" length="14.46" shape="1402.95,958.00 1388.62,956.13"/>
    </edge>
    <edge id=":1471100885_2" function="internal">
        <lane id=":1471100885_2_0" index="0" disallow="tram rail_urban rail rail_electric rail_fast ship" speed="8.18" length="5.83" shape="1402.95,958.00 1399.20,956.90 1397.70,955.70"/>
    </edge>
    <edge id=":1471100885_3" function="internal">
        <lane id=":1471100885_3_0" index="0" disallow="tram rail_urban rail rail_electric rail_fast ship" speed="3.65" length="2.34" shape="1402.95,958.00 1401.88,957.04 1401.60,956.19"/>
    </edge>
    <edge id=":1471100885_16" function="internal">
        <lane id=":1471100885_16_0" index="0" disallow="tram rail_urban rail rail_electric rail_fast ship" speed="8.18" length="8.51" shape="1397.70,955.70 1396.65,954.87 1395.29,951.90 1395.13,948.00"/>
    </edge>
    <edge id=":1471100885_17" function="internal">
        <lane id=":1471100885_17_0" index="0" disallow="tram rail_urban rail rail_electric rail_fast ship" speed="3.65" length="2.34" shape="1401.60,956.19 1402.11,955.45 1403.41,954.84"/>
    </edge>
    <edge id=":1471100885_4" function="internal">
        <lane id=":1471100885_4_0" index="0" disallow="tram rail_urban rail rail_electric rail_fast ship" speed="6.72" length="9.35" shape="1398.31,948.31 1398.42,950.86 1399.31,952.79 1400.97,954.12 1403.41,954.84"/>
    </edge>
    <edge id=":1471100885_5" function="internal">
        <lane id=":1471100885_5_0" index="0" disallow="tram rail_urban rail rail_electric rail_fast ship" speed="18.05" length="14.55" shape="1398.31,948.31 1396.66,962.77"/>
    </edge>
    <edge id=":1471100885_6" function="internal">
        <lane id=":1471100885_6_0" index="0" disallow="tram rail_urban rail rail_electric rail_fast ship" speed="7.97" length="14.25" shape="1398.31,948.31 1397.38,952.11 1395.45,954.68 1392.53,956.02 1388.62,956.13"/>
    </edge>
    <edge id=":1471100885_7" function="internal">
        <lane id=":1471100885_7_0" index="0" disallow="tram rail_urban rail rail_electric rail_fast ship" speed="3.65" length="4.67" shape="1398.31,948.31 1397.40,949.43 1396.56,949.75 1395.81,949.27 1395.13,948.00"/>
    </edge>
    <edge id=":1471100885_8" function="internal">
        <lane id=":1471100885_8_0" index="0" disallow="tram rail_urban rail rail_electric rail_fast ship" speed="6.47" length="9.03" shape="1388.98,952.95 1391.46,952.88 1393.31,952.03 1394.54,950.40 1395.13,948.00"/>
    </edge>
    <edge id=":1471100885_9" function="internal">
        <lane id=":1471100885_9_0" index="0" disallow="tram rail_urban rail rail_electric rail_fast ship" speed="22.22" length="14.55" shape="1388.98,952.95 1403.41,954.84"/>
    </edge>
    <edge id=":1471100885_10" function="internal">
        <lane id=":1471100885_10_0" index="0" disallow="tram rail_urban rail rail_electric rail_fast ship" speed="7.98" length="6.10" shape="1388.98,952.95 1392.77,953.94 1394.50,955.28"/>
    </edge>
    <edge id=":1471100885_11" function="internal">
        <lane id=":1471100885_11_0" index="0" disallow="tram rail_urban rail rail_electric rail_fast ship" speed="3.65" length="2.34" shape="1388.98,952.95 1390.08,953.88 1390.39,954.72"/>
    </edge>
    <edge id=":1471100885_18" function="internal">
        <lane id=":1471100885_18_0" index="0" disallow="tram rail_urban rail rail_electric rail_fast ship" speed="7.98" length="8.16" shape="1394.50,955.28 1395.31,955.91 1396.61,958.85 1396.66,962.77"/>
    </edge>
    <edge id=":1471100885_19" function="internal">
        <lane id=":1471100885_19_0" index="0" disallow="tram rail_urban rail rail_electric rail_fast ship" speed="3.65" length="2.34" shape="1390.39,954.72 1389.90,955.47 1388.62,956.13"/>
    </edge>
    <edge id=":1471100885_12" function="internal">
        <lane id=":1471100885_12_0" index="0" disallow="tram rail_urban rail rail_electric rail_fast ship" speed="6.48" length="9.05" shape="1393.49,962.36 1393.45,959.88 1392.63,958.01 1391.02,956.76 1388.62,956.13"/>
    </edge>
    <edge id=":1471100885_13" function="internal">
        <lane id=":1471100885_13_0" index="0" disallow="tram rail_urban rail rail_electric rail_fast ship" speed="18.05" length="14.46" shape="1393.49,962.36 1395.13,948.00"/>
    </edge>
    <edge id=":1471100885_14" function="internal">
        <lane id=":1471100885_14_0" index="0" disallow="tram rail_urban rail rail_electric rail_fast ship" speed="7.97" length="14.26" shape="1393.49,962.36 1394.54,958.59 1396.54,956.08 1399.50,954.83 1403.41,954.84"/>
    </edge>
    <edge id=":1471100885_15" function="internal">
        <lane id=":1471100885_15_0" index="0" disallow="tram rail_urban rail rail_electric rail_fast ship" speed="3.65" length="4.67" shape="1393.49,962.36 1394.44,961.27 1395.28,960.98 1396.02,961.48 1396.66,962.77"/>
    </edge>
    <edge id=":1471100888_0" function="internal">
        <lane id=":1471100888_0_0" index="0" disallow="tram rail_urban rail rail_electric rail_fast ship" speed="3.65" length="4.67" shape="2358.94,1095.07 2360.01,1096.03 2360.29,1096.88 2359.77,1097.62 2358.47,1098.23"/>
    </edge>
    <edge id=":1471100893_0" function="internal">
        <lane id=":1471100893_0_0" index="0" disallow="tram rail_urban rail rail_electric rail_fast ship" speed="3.65" length="4.67" shape="1993.48,1346.94 1994.60,1347.85 1994.93,1348.69 1994.45,1349.44 1993.18,1350.13"/>
    </edge>
    <edge id=":2613601271_0" function="internal">
        <lane id=":2613601271_0_0" index="0" disallow="tram rail_urban rail rail_electric rail_fast ship" speed="6.80" length="1.25" shape="1127.11,925.90 1126.41,925.45 1126.20,925.09"/>
    </edge>
    <edge id=":2613601271_1" function="internal">
        <lane id=":2613601271_1_0" index="0" disallow="tram rail_urban rail rail_electric rail_fast ship" speed="3.65" length="1.22" shape="1127.11,925.90 1126.18,925.11"/>
    </edge>
    <edge id=":2613601271_4" function="internal">
        <lane id=":2613601271_4_0" index="0" disallow="tram rail_urban rail rail_electric rail_fast ship" speed="6.80" length="5.93" shape="1126.20,925.09 1125.69,924.24 1124.94,922.27 1124.16,919.55"/>
    </edge>
    <edge id=":2613601271_5" function="internal">
        <lane id=":2613601271_5_0" index="0" disallow="tram rail_urban rail rail_electric rail_fast ship" speed="3.65" length="3.45" shape="1126.18,925.11 1126.01,924.97 1125.71,924.13 1126.20,923.38 1127.48,922.73"/>
    </edge>
    <edge id=":2613601271_2" function="internal">
        <lane id=":2613601271_2_0" index="0" disallow="tram rail_urban rail rail_electric rail_fast ship" speed="8.91" length="7.20" shape="1123.16,926.49 1123.96,924.85 1124.39,923.14 1124.45,921.37 1124.16,919.55"/>
    </edge>
    <edge id=":2613601271_3" function="internal">
        <lane id=":2613601271_3_0" index="0" disallow="tram rail_urban rail rail_electric rail_fast ship" speed="6.45" length="5.98" shape="1123.16,926.49 1124.33,924.76 1125.44,923.56 1126.49,922.88 1127.48,922.73"/>
    </edge>
    <edge id=":2613601298_0" function="internal">
        <lane id=":2613601298_0_0" index="0" disallow="tram rail_urban rail rail_electric rail_fast ship" speed="3.65" length="4.67" shape="455.98,607.06 456.71,605.81 457.48,605.36 458.30,605.72 459.17,606.87"/>
    </edge>
    <edge id=":2613601300_0" function="internal">
        <lane id=":2613601300_0_0" index="0" disallow="tram rail_urban rail rail_electric rail_fast ship" speed="6.47" length="9.03" shape="744.34,1155.00 741.86,1154.94 739.97,1155.70 738.67,1157.27 737.95,1159.64"/>
    </edge>
    <edge id=":2613601300_1" function="internal">
        <lane id=":2613601300_1_0" index="0" disallow="tram rail_urban rail rail_electric rail_fast ship" speed="22.22" length="14.56" shape="744.34,1155.00 729.96,1152.74"/>
    </edge>
    <edge id=":2613601300_2" function="internal">
        <lane id=":2613601300_2_0" index="0" disallow="tram rail_urban rail rail_electric rail_fast ship" speed="8.23" length="5.89" shape="744.34,1155.00 740.61,1153.82 739.09,1152.56"/>
    </edge>
    <edge id=":2613601300_3" function="internal">
        <lane id=":2613601300_3_0" index="0" disallow="tram rail_urban rail rail_electric rail_fast ship" speed="3.65" length="2.34" shape="744.34,1155.00 743.28,1154.01 743.02,1153.16"/>
    </edge>
    <edge id=":2613601300_16" function="internal">
        <lane id=":2613601300_16_0" index="0" disallow="tram rail_urban rail rail_electric rail_fast ship" speed="8.23" length="8.53" shape="739.09,1152.56 738.09,1151.73 736.76,1148.71 736.63,1144.77"/>
    </edge>
    <edge id=":2613601300_17" function="internal">
        <lane id=":2613601300_17_0" index="0" disallow="tram rail_urban rail rail_electric rail_fast ship" speed="3.65" length="2.34" shape="743.02,1153.16 743.54,1152.43 744.86,1151.84"/>
    </edge>
    <edge id=":2613601300_4" function="internal">
        <lane id=":2613601300_4_0" index="0" disallow="tram rail_urban rail rail_electric rail_fast ship" speed="6.78" length="9.47" shape="739.81,1145.11 739.90,1147.71 740.77,1149.69 742.42,1151.07 744.86,1151.84"/>
    </edge>
    <edge id=":2613601300_5" function="internal">
        <lane id=":2613601300_5_0" index="0" disallow="tram rail_urban rail rail_electric rail_fast ship" speed="13.89" length="14.65" shape="739.81,1145.11 737.95,1159.64"/>
    </edge>
    <edge id=":2613601300_6" function="internal">
        <lane id=":2613601300_6_0" index="0" disallow="tram rail_urban rail rail_electric rail_fast ship" speed="7.93" length="14.35" shape="739.81,1145.11 738.84,1148.95 736.87,1151.50 733.91,1152.76 729.96,1152.74"/>
    </edge>
    <edge id=":2613601300_7" function="internal">
        <lane id=":2613601300_7_0" index="0" disallow="tram rail_urban rail rail_electric rail_fast ship" speed="3.65" length="4.67" shape="739.81,1145.11 738.89,1146.22 738.05,1146.54 737.30,1146.05 736.63,1144.77"/>
    </edge>
    <edge id=":2613601300_8" function="internal">
        <lane id=":2613601300_8_0" index="0" disallow="tram rail_urban rail rail_electric rail_fast ship" speed="6.42" length="9.04" shape="730.43,1149.58 732.92,1149.59 734.78,1148.79 736.02,1147.19 736.63,1144.77"/>
    </edge>
    <edge id=":2613601300_9" function="internal">
        <lane id=":2613601300_9_0" index="0" disallow="tram rail_urban rail rail_electric rail_fast ship" speed="22.22" length="14.61" shape="730.43,1149.58 744.86,1151.84"/>
    </edge>
    <edge id=":2613601300_10" function="internal">
        <lane id=":2613601300_10_0" index="0" disallow="tram rail_urban rail rail_electric rail_fast ship" speed="8.04" length="6.09" shape="730.43,1149.58 734.21,1150.70 735.87,1152.05"/>
    </edge>
    <edge id=":2613601300_11" function="internal">
        <lane id=":2613601300_11_0" index="0" disallow="tram rail_urban rail rail_electric rail_fast ship" speed="3.65" length="2.34" shape="730.43,1149.58 731.49,1150.55 731.77,1151.40"/>
    </edge>
    <edge id=":2613601300_18" function="internal">
        <lane id=":2613601300_18_0" index="0" disallow="tram rail_urban rail rail_electric rail_fast ship" speed="8.04" length="8.25" shape="735.87,1152.05 736.73,1152.75 737.97,1155.73 737.95,1159.64"/>
    </edge>
    <edge id=":2613601300_19" function="internal">
        <lane id=":2613601300_19_0" index="0" disallow="tram rail_urban rail rail_electric rail_fast ship" speed="3.65" length="2.34" shape="731.77,1151.40 731.26,1152.13 729.96,1152.74"/>
    </edge>
    <edge id=":2613601300_12" function="internal">
        <lane id=":2613601300_12_0" index="0" disallow="tram rail_urban rail rail_electric rail_fast ship" speed="6.55" length="9.17" shape="734.79,1159.17 734.80,1156.67 734.00,1154.77 732.38,1153.46 729.96,1152.74"/>
    </edge>
    <edge id=":2613601300_13" function="internal">
        <lane id=":2613601300_13_0" index="0" disallow="tram rail_urban rail rail_electric rail_fast ship" speed="13.89" length="14.51" shape="734.79,1159.17 736.63,1144.77"/>
    </edge>
    <edge id=":2613601300_14" function="internal">
        <lane id=":2613601300_14_0" index="0" disallow="tram rail_urban rail rail_electric rail_fast ship" speed="7.97" length="14.25" shape="734.79,1159.17 735.91,1155.42 737.96,1152.95 740.95,1151.76 744.86,1151.84"/>
    </edge>
    <edge id=":2613601300_15" function="internal">
        <lane id=":2613601300_15_0" index="0" disallow="tram rail_urban rail rail_electric rail_fast ship" speed="3.65" length="4.67" shape="734.79,1159.17 735.76,1158.10 736.61,1157.82 737.34,1158.34 737.95,1159.64"/>
    </edge>
    <edge id=":2613601304_0" function="internal">
        <lane id=":2613601304_0_0" index="0" allow="pedestrian delivery bicycle" speed="9.72" length="1.64" shape="613.98,1359.72 613.51,1359.61 613.19,1359.51 612.89,1359.35 612.48,1359.10"/>
    </edge>
    <edge id=":2613601304_1" function="internal">
        <lane id=":2613601304_1_0" index="0" disallow="tram rail_urban rail rail_electric rail_fast ship" speed="3.65" length="2.34" shape="613.98,1359.72 612.99,1358.68 612.78,1357.81"/>
    </edge>
    <edge id=":2613601304_3" function="internal">
        <lane id=":2613601304_3_0" index="0" disallow="tram rail_urban rail rail_electric rail_fast ship" speed="3.65" length="2.34" shape="612.78,1357.81 613.35,1357.12 614.70,1356.60"/>
    </edge>
    <edge id=":2613601304_2" function="internal">
        <lane id=":2613601304_2_0" index="0" allow="pedestrian delivery bicycle" speed="9.72" length="0.55" shape="614.20,1356.40 614.34,1356.48 614.44,1356.53 614.54,1356.57 614.70,1356.60"/>
    </edge>
    <edge id=":2613601305_0" function="internal">
        <lane id=":2613601305_0_0" index="0" disallow="tram rail_urban rail rail_electric rail_fast ship" speed="6.79" length="9.22" shape="716.34,1341.72 713.79,1341.67 711.77,1342.39 710.30,1343.87 709.37,1346.13"/>
    </edge>
    <edge id=":2613601305_1" function="internal">
        <lane id=":2613601305_1_0" index="0" disallow="tram rail_urban rail rail_electric rail_fast ship" speed="8.00" length="14.15" shape="716.34,1341.72 712.63,1340.60 710.17,1338.56 708.95,1335.60 708.98,1331.72"/>
    </edge>
    <edge id=":2613601305_2" function="internal">
        <lane id=":2613601305_2_0" index="0" disallow="tram rail_urban rail rail_electric rail_fast ship" speed="3.65" length="4.67" shape="716.34,1341.72 715.28,1340.75 715.00,1339.90 715.52,1339.17 716.83,1338.56"/>
    </edge>
    <edge id=":2613601305_3" function="internal">
        <lane id=":2613601305_3_0" index="0" disallow="tram rail_urban rail rail_electric rail_fast ship" speed="6.51" length="9.00" shape="712.14,1332.20 712.13,1334.66 712.90,1336.54 714.47,1337.84 716.83,1338.56"/>
    </edge>
    <edge id=":2613601305_4" function="internal">
        <lane id=":2613601305_4_0" index="0" disallow="tram rail_urban rail rail_electric rail_fast ship" speed="13.89" length="14.21" shape="712.14,1332.20 711.57,1335.78 710.93,1339.20 710.21,1342.60 709.37,1346.13"/>
    </edge>
    <edge id=":2613601305_5" function="internal">
        <lane id=":2613601305_5_0" index="0" disallow="tram rail_urban rail rail_electric rail_fast ship" speed="3.65" length="2.34" shape="712.14,1332.20 711.17,1333.26 710.32,1333.54"/>
    </edge>
    <edge id=":2613601305_9" function="internal">
        <lane id=":2613601305_9_0" index="0" disallow="tram rail_urban rail rail_electric rail_fast ship" speed="3.65" length="2.34" shape="710.32,1333.54 709.59,1333.03 708.98,1331.72"/>
    </edge>
    <edge id=":2613601305_6" function="internal">
        <lane id=":2613601305_6_0" index="0" disallow="tram rail_urban rail rail_electric rail_fast ship" speed="13.89" length="13.90" shape="706.26,1345.35 707.10,1341.87 707.80,1338.57 708.41,1335.26 708.98,1331.72"/>
    </edge>
    <edge id=":2613601305_7" function="internal">
        <lane id=":2613601305_7_0" index="0" disallow="tram rail_urban rail rail_electric rail_fast ship" speed="8.24" length="5.64" shape="706.26,1345.35 707.69,1341.88 709.02,1340.53"/>
    </edge>
    <edge id=":2613601305_8" function="internal">
        <lane id=":2613601305_8_0" index="0" disallow="tram rail_urban rail rail_electric rail_fast ship" speed="3.65" length="2.34" shape="706.26,1345.35 707.33,1344.38 708.20,1344.19"/>
    </edge>
    <edge id=":2613601305_10" function="internal">
        <lane id=":2613601305_10_0" index="0" disallow="tram rail_urban rail rail_electric rail_fast ship" speed="8.24" length="8.40" shape="709.02,1340.53 709.92,1339.60 712.97,1338.49 716.83,1338.56"/>
    </edge>
    <edge id=":2613601305_11" function="internal">
        <lane id=":2613601305_11_0" index="0" disallow="tram rail_urban rail rail_electric rail_fast ship" speed="3.65" length="2.34" shape="708.20,1344.19 708.88,1344.77 709.37,1346.13"/>
    </edge>
    <edge id=":2613601307_0" function="internal">
        <lane id=":2613601307_0_0" index="0" disallow="tram rail_urban rail rail_electric rail_fast ship" speed="10.63" length="10.74" shape="954.62,1360.49 951.51,1360.73 948.82,1361.40 946.57,1362.48 944.75,1363.97"/>
    </edge>
    <edge id=":2613601307_1" function="internal">
        <lane id=":2613601307_1_0" index="0" disallow="tram rail_urban rail rail_electric rail_fast ship" speed="7.92" length="14.37" shape="954.62,1360.49 950.70,1359.97 947.94,1358.31 946.34,1355.51 945.92,1351.57"/>
    </edge>
    <edge id=":2613601307_2" function="internal">
        <lane id=":2613601307_2_0" index="0" disallow="tram rail_urban rail rail_electric rail_fast ship" speed="3.65" length="4.67" shape="954.62,1360.49 953.41,1359.70 953.01,1358.91 953.40,1358.10 954.59,1357.29"/>
    </edge>
    <edge id=":2613601307_3" function="internal">
        <lane id=":2613601307_3_0" index="0" disallow="tram rail_urban rail rail_electric rail_fast ship" speed="6.41" length="9.04" shape="949.11,1351.68 949.38,1354.16 950.38,1355.92 952.12,1356.96 954.59,1357.29"/>
    </edge>
    <edge id=":2613601307_4" function="internal">
        <lane id=":2613601307_4_0" index="0" disallow="tram rail_urban rail rail_electric rail_fast ship" speed="12.85" length="13.37" shape="949.11,1351.68 948.84,1355.20 948.15,1358.33 946.85,1361.22 944.75,1363.97"/>
    </edge>
    <edge id=":2613601307_5" function="internal">
        <lane id=":2613601307_5_0" index="0" disallow="tram rail_urban rail rail_electric rail_fast ship" speed="3.65" length="2.34" shape="949.11,1351.68 948.27,1352.85 947.46,1353.22"/>
    </edge>
    <edge id=":2613601307_9" function="internal">
        <lane id=":2613601307_9_0" index="0" disallow="tram rail_urban rail rail_electric rail_fast ship" speed="3.65" length="2.34" shape="947.46,1353.22 946.67,1352.80 945.92,1351.57"/>
    </edge>
    <edge id=":2613601307_6" function="internal">
        <lane id=":2613601307_6_0" index="0" disallow="tram rail_urban rail rail_electric rail_fast ship" speed="11.77" length="11.16" shape="942.42,1361.78 944.39,1359.35 945.39,1357.18 945.78,1354.76 945.92,1351.57"/>
    </edge>
    <edge id=":2613601307_7" function="internal">
        <lane id=":2613601307_7_0" index="0" disallow="tram rail_urban rail rail_electric rail_fast ship" speed="11.79" length="4.43" shape="942.42,1361.78 944.73,1359.85 946.00,1359.22"/>
    </edge>
    <edge id=":2613601307_8" function="internal">
        <lane id=":2613601307_8_0" index="0" disallow="tram rail_urban rail rail_electric rail_fast ship" speed="3.65" length="2.15" shape="942.42,1361.78 943.82,1361.45 944.50,1361.66"/>
    </edge>
    <edge id=":2613601307_10" function="internal">
        <lane id=":2613601307_10_0" index="0" disallow="tram rail_urban rail rail_electric rail_fast ship" speed="11.79" length="8.89" shape="946.00,1359.22 947.53,1358.46 950.82,1357.60 954.59,1357.29"/>
    </edge>
    <edge id=":2613601307_11" function="internal">
        <lane id=":2613601307_11_0" index="0" disallow="tram rail_urban rail rail_electric rail_fast ship" speed="3.65" length="2.52" shape="944.50,1361.66 944.68,1361.71 944.99,1362.55 944.75,1363.97"/>
    </edge>
    <edge id=":2613601310_0" function="internal">
        <lane id=":2613601310_0_0" index="0" disallow="tram rail_urban rail rail_electric rail_fast ship" speed="6.57" length="9.01" shape="1131.86,1211.13 1129.42,1211.28 1127.59,1212.18 1126.37,1213.83 1125.75,1216.22"/>
    </edge>
    <edge id=":2613601310_1" function="internal">
        <lane id=":2613601310_1_0" index="0" disallow="tram rail_urban rail rail_electric rail_fast ship" speed="22.22" length="14.25" shape="1131.86,1211.13 1117.68,1209.69"/>
    </edge>
    <edge id=":2613601310_2" function="internal">
        <lane id=":2613601310_2_0" index="0" disallow="tram rail_urban rail rail_electric rail_fast ship" speed="3.65" length="2.34" shape="1131.86,1211.13 1130.73,1210.24 1130.40,1209.41"/>
    </edge>
    <edge id=":2613601310_9" function="internal">
        <lane id=":2613601310_9_0" index="0" disallow="tram rail_urban rail rail_electric rail_fast ship" speed="3.65" length="2.34" shape="1130.40,1209.41 1130.86,1208.64 1132.12,1207.94"/>
    </edge>
    <edge id=":2613601310_3" function="internal">
        <lane id=":2613601310_3_0" index="0" disallow="tram rail_urban rail rail_electric rail_fast ship" speed="22.22" length="14.12" shape="1118.07,1206.51 1132.12,1207.94"/>
    </edge>
    <edge id=":2613601310_4" function="internal">
        <lane id=":2613601310_4_0" index="0" disallow="tram rail_urban rail rail_electric rail_fast ship" speed="8.00" length="5.70" shape="1118.07,1206.51 1121.79,1207.52 1123.26,1208.65"/>
    </edge>
    <edge id=":2613601310_5" function="internal">
        <lane id=":2613601310_5_0" index="0" disallow="tram rail_urban rail rail_electric rail_fast ship" speed="3.65" length="2.34" shape="1118.07,1206.51 1119.17,1207.45 1119.47,1208.30"/>
    </edge>
    <edge id=":2613601310_10" function="internal">
        <lane id=":2613601310_10_0" index="0" disallow="tram rail_urban rail rail_electric rail_fast ship" speed="8.00" length="8.38" shape="1123.26,1208.65 1124.31,1209.47 1125.63,1212.37 1125.75,1216.22"/>
    </edge>
    <edge id=":2613601310_11" function="internal">
        <lane id=":2613601310_11_0" index="0" disallow="tram rail_urban rail rail_electric rail_fast ship" speed="3.65" length="2.34" shape="1119.47,1208.30 1118.97,1209.04 1117.68,1209.69"/>
    </edge>
    <edge id=":2613601310_6" function="internal">
        <lane id=":2613601310_6_0" index="0" disallow="tram rail_urban rail rail_electric rail_fast ship" speed="6.51" length="8.96" shape="1122.57,1215.87 1122.50,1213.42 1121.66,1211.57 1120.05,1210.33 1117.68,1209.69"/>
    </edge>
    <edge id=":2613601310_7" function="internal">
        <lane id=":2613601310_7_0" index="0" disallow="tram rail_urban rail rail_electric rail_fast ship" speed="8.05" length="14.06" shape="1122.57,1215.87 1123.53,1212.14 1125.44,1209.57 1128.30,1208.18 1132.12,1207.94"/>
    </edge>
    <edge id=":2613601310_8" function="internal">
        <lane id=":2613601310_8_0" index="0" disallow="tram rail_urban rail rail_electric rail_fast ship" speed="3.65" length="4.67" shape="1122.57,1215.87 1123.50,1214.76 1124.34,1214.46 1125.09,1214.94 1125.75,1216.22"/>
    </edge>
    <edge id=":2613601311_0" function="internal">
        <lane id=":2613601311_0_0" index="0" disallow="tram rail_urban rail rail_electric rail_fast ship" speed="3.65" length="4.67" shape="1332.60,1355.15 1332.37,1356.58 1331.81,1357.27 1330.92,1357.24 1329.69,1356.49"/>
    </edge>
    <edge id=":2613601321_0" function="internal">
        <lane id=":2613601321_0_0" index="0" disallow="tram rail_urban rail rail_electric rail_fast ship" speed="6.27" length="5.23" shape="0.83,912.10 -0.25,911.26 -0.99,910.25 -1.40,909.06 -1.48,907.70"/>
    </edge>
    <edge id=":2613601321_1" function="internal">